<?xml version='1.0' encoding='utf-8'?>
<net xmlns:xsi="http://www.w3.org/2001/XMLSchema-instance" version="1.20" junctionCornerDetail="5" limitTurnSpeed="5.50" avoidOverlap="0" xsi:noNamespaceSchemaLocation="http://sumo.dlr.de/xsd/net_file.xsd">
    <location netOffset="0.00,0.00" convBoundary="-100.00,-100.00,200.00,200.00" origBoundary="-10000000000.00,-10000000000.00,10000000000.00,10000000000.00" projParameter="!" />
    <edge id=":J15_0" function="internal">
        <lane id=":J15_0_0" index="0" speed="6.51" length="9.03" shape="-4.80,110.40 -5.15,107.95 -6.20,106.20 -7.95,105.15 -10.40,104.80" />
    </edge>
    <edge id=":J15_1" function="internal">
        <lane id=":J15_1_0" index="0" speed="13.89" length="20.80" shape="-4.80,110.40 -4.80,89.60" />
        <lane id=":J15_1_1" index="1" speed="13.89" length="20.80" shape="-1.60,110.40 -1.60,89.60" />
    </edge>
    <edge id=":J15_3" function="internal">
        <lane id=":J15_3_0" index="0" speed="9.26" length="5.01" shape="-1.60,110.40 -0.89,105.44" />
    </edge>
    <edge id=":J15_16" function="internal">
        <lane id=":J15_16_0" index="0" speed="9.26" length="14.34" shape="-0.89,105.44 -0.85,105.15 1.40,101.40 5.15,99.15 10.40,98.40" />
    </edge>
    <edge id=":J15_4" function="internal">
        <lane id=":J15_4_0" index="0" speed="6.51" length="9.03" shape="10.40,104.80 7.95,105.15 6.20,106.20 5.15,107.95 4.80,110.40" />
    </edge>
    <edge id=":J15_5" function="internal">
        <lane id=":J15_5_0" index="0" speed="13.89" length="20.80" shape="10.40,104.80 -10.40,104.80" />
        <lane id=":J15_5_1" index="1" speed="13.89" length="20.80" shape="10.40,101.60 -10.40,101.60" />
    </edge>
    <edge id=":J15_7" function="internal">
        <lane id=":J15_7_0" index="0" speed="9.26" length="5.01" shape="10.40,101.60 5.44,100.89" />
    </edge>
    <edge id=":J15_17" function="internal">
        <lane id=":J15_17_0" index="0" speed="9.26" length="14.34" shape="5.44,100.89 5.15,100.85 1.40,98.60 -0.85,94.85 -1.60,89.60" />
    </edge>
    <edge id=":J15_8" function="internal">
        <lane id=":J15_8_0" index="0" speed="6.51" length="9.03" shape="4.80,89.60 5.15,92.05 6.20,93.80 7.95,94.85 10.40,95.20" />
    </edge>
    <edge id=":J15_9" function="internal">
        <lane id=":J15_9_0" index="0" speed="13.89" length="20.80" shape="4.80,89.60 4.80,110.40" />
        <lane id=":J15_9_1" index="1" speed="13.89" length="20.80" shape="1.60,89.60 1.60,110.40" />
    </edge>
    <edge id=":J15_11" function="internal">
        <lane id=":J15_11_0" index="0" speed="9.26" length="5.01" shape="1.60,89.60 0.89,94.56" />
    </edge>
    <edge id=":J15_18" function="internal">
        <lane id=":J15_18_0" index="0" speed="9.26" length="14.34" shape="0.89,94.56 0.85,94.85 -1.40,98.60 -5.15,100.85 -10.40,101.60" />
    </edge>
    <edge id=":J15_12" function="internal">
        <lane id=":J15_12_0" index="0" speed="6.51" length="9.03" shape="-10.40,95.20 -7.95,94.85 -6.20,93.80 -5.15,92.05 -4.80,89.60" />
    </edge>
    <edge id=":J15_13" function="internal">
        <lane id=":J15_13_0" index="0" speed="13.89" length="20.80" shape="-10.40,95.20 10.40,95.20" />
        <lane id=":J15_13_1" index="1" speed="13.89" length="20.80" shape="-10.40,98.40 10.40,98.40" />
    </edge>
    <edge id=":J15_15" function="internal">
        <lane id=":J15_15_0" index="0" speed="9.26" length="5.01" shape="-10.40,98.40 -5.44,99.11" />
    </edge>
    <edge id=":J15_19" function="internal">
        <lane id=":J15_19_0" index="0" speed="9.26" length="14.34" shape="-5.44,99.11 -5.15,99.15 -1.40,101.40 0.85,105.15 1.60,110.40" />
    </edge>
    <edge id=":J16_0" function="internal">
        <lane id=":J16_0_0" index="0" speed="6.51" length="9.03" shape="95.20,110.40 94.85,107.95 93.80,106.20 92.05,105.15 89.60,104.80" />
    </edge>
    <edge id=":J16_1" function="internal">
        <lane id=":J16_1_0" index="0" speed="13.89" length="20.80" shape="95.20,110.40 95.20,89.60" />
        <lane id=":J16_1_1" index="1" speed="13.89" length="20.80" shape="98.40,110.40 98.40,89.60" />
    </edge>
    <edge id=":J16_3" function="internal">
        <lane id=":J16_3_0" index="0" speed="9.26" length="5.01" shape="98.40,110.40 99.11,105.44" />
    </edge>
    <edge id=":J16_16" function="internal">
        <lane id=":J16_16_0" index="0" speed="9.26" length="14.34" shape="99.11,105.44 99.15,105.15 101.40,101.40 105.15,99.15 110.40,98.40" />
    </edge>
    <edge id=":J16_4" function="internal">
        <lane id=":J16_4_0" index="0" speed="6.51" length="9.03" shape="110.40,104.80 107.95,105.15 106.20,106.20 105.15,107.95 104.80,110.40" />
    </edge>
    <edge id=":J16_5" function="internal">
        <lane id=":J16_5_0" index="0" speed="13.89" length="20.80" shape="110.40,104.80 89.60,104.80" />
        <lane id=":J16_5_1" index="1" speed="13.89" length="20.80" shape="110.40,101.60 89.60,101.60" />
    </edge>
    <edge id=":J16_7" function="internal">
        <lane id=":J16_7_0" index="0" speed="9.26" length="5.01" shape="110.40,101.60 105.44,100.89" />
    </edge>
    <edge id=":J16_17" function="internal">
        <lane id=":J16_17_0" index="0" speed="9.26" length="14.34" shape="105.44,100.89 105.15,100.85 101.40,98.60 99.15,94.85 98.40,89.60" />
    </edge>
    <edge id=":J16_8" function="internal">
        <lane id=":J16_8_0" index="0" speed="6.51" length="9.03" shape="104.80,89.60 105.15,92.05 106.20,93.80 107.95,94.85 110.40,95.20" />
    </edge>
    <edge id=":J16_9" function="internal">
        <lane id=":J16_9_0" index="0" speed="13.89" length="20.80" shape="104.80,89.60 104.80,110.40" />
        <lane id=":J16_9_1" index="1" speed="13.89" length="20.80" shape="101.60,89.60 101.60,110.40" />
    </edge>
    <edge id=":J16_11" function="internal">
        <lane id=":J16_11_0" index="0" speed="9.26" length="5.01" shape="101.60,89.60 100.89,94.56" />
    </edge>
    <edge id=":J16_18" function="internal">
        <lane id=":J16_18_0" index="0" speed="9.26" length="14.34" shape="100.89,94.56 100.85,94.85 98.60,98.60 94.85,100.85 89.60,101.60" />
    </edge>
    <edge id=":J16_12" function="internal">
        <lane id=":J16_12_0" index="0" speed="6.51" length="9.03" shape="89.60,95.20 92.05,94.85 93.80,93.80 94.85,92.05 95.20,89.60" />
    </edge>
    <edge id=":J16_13" function="internal">
        <lane id=":J16_13_0" index="0" speed="13.89" length="20.80" shape="89.60,95.20 110.40,95.20" />
        <lane id=":J16_13_1" index="1" speed="13.89" length="20.80" shape="89.60,98.40 110.40,98.40" />
    </edge>
    <edge id=":J16_15" function="internal">
        <lane id=":J16_15_0" index="0" speed="9.26" length="5.01" shape="89.60,98.40 94.56,99.11" />
    </edge>
    <edge id=":J16_19" function="internal">
        <lane id=":J16_19_0" index="0" speed="9.26" length="14.34" shape="94.56,99.11 94.85,99.15 98.60,101.40 100.85,105.15 101.60,110.40" />
    </edge>
    <edge id=":J17_0" function="internal">
        <lane id=":J17_0_0" index="0" speed="6.51" length="9.03" shape="95.20,10.40 94.85,7.95 93.80,6.20 92.05,5.15 89.60,4.80" />
    </edge>
    <edge id=":J17_1" function="internal">
        <lane id=":J17_1_0" index="0" speed="13.89" length="20.80" shape="95.20,10.40 95.20,-10.40" />
        <lane id=":J17_1_1" index="1" speed="13.89" length="20.80" shape="98.40,10.40 98.40,-10.40" />
    </edge>
    <edge id=":J17_3" function="internal">
        <lane id=":J17_3_0" index="0" speed="9.26" length="5.01" shape="98.40,10.40 99.11,5.44" />
    </edge>
    <edge id=":J17_16" function="internal">
        <lane id=":J17_16_0" index="0" speed="9.26" length="14.34" shape="99.11,5.44 99.15,5.15 101.40,1.40 105.15,-0.85 110.40,-1.60" />
    </edge>
    <edge id=":J17_4" function="internal">
        <lane id=":J17_4_0" index="0" speed="6.51" length="9.03" shape="110.40,4.80 107.95,5.15 106.20,6.20 105.15,7.95 104.80,10.40" />
    </edge>
    <edge id=":J17_5" function="internal">
        <lane id=":J17_5_0" index="0" speed="13.89" length="20.80" shape="110.40,4.80 89.60,4.80" />
        <lane id=":J17_5_1" index="1" speed="13.89" length="20.80" shape="110.40,1.60 89.60,1.60" />
    </edge>
    <edge id=":J17_7" function="internal">
        <lane id=":J17_7_0" index="0" speed="9.26" length="5.01" shape="110.40,1.60 105.44,0.89" />
    </edge>
    <edge id=":J17_17" function="internal">
        <lane id=":J17_17_0" index="0" speed="9.26" length="14.34" shape="105.44,0.89 105.15,0.85 101.40,-1.40 99.15,-5.15 98.40,-10.40" />
    </edge>
    <edge id=":J17_8" function="internal">
        <lane id=":J17_8_0" index="0" speed="6.51" length="9.03" shape="104.80,-10.40 105.15,-7.95 106.20,-6.20 107.95,-5.15 110.40,-4.80" />
    </edge>
    <edge id=":J17_9" function="internal">
        <lane id=":J17_9_0" index="0" speed="13.89" length="20.80" shape="104.80,-10.40 104.80,10.40" />
        <lane id=":J17_9_1" index="1" speed="13.89" length="20.80" shape="101.60,-10.40 101.60,10.40" />
    </edge>
    <edge id=":J17_11" function="internal">
        <lane id=":J17_11_0" index="0" speed="9.26" length="5.01" shape="101.60,-10.40 100.89,-5.44" />
    </edge>
    <edge id=":J17_18" function="internal">
        <lane id=":J17_18_0" index="0" speed="9.26" length="14.34" shape="100.89,-5.44 100.85,-5.15 98.60,-1.40 94.85,0.85 89.60,1.60" />
    </edge>
    <edge id=":J17_12" function="internal">
        <lane id=":J17_12_0" index="0" speed="6.51" length="9.03" shape="89.60,-4.80 92.05,-5.15 93.80,-6.20 94.85,-7.95 95.20,-10.40" />
    </edge>
    <edge id=":J17_13" function="internal">
        <lane id=":J17_13_0" index="0" speed="13.89" length="20.80" shape="89.60,-4.80 110.40,-4.80" />
        <lane id=":J17_13_1" index="1" speed="13.89" length="20.80" shape="89.60,-1.60 110.40,-1.60" />
    </edge>
    <edge id=":J17_15" function="internal">
        <lane id=":J17_15_0" index="0" speed="9.26" length="5.01" shape="89.60,-1.60 94.56,-0.89" />
    </edge>
    <edge id=":J17_19" function="internal">
        <lane id=":J17_19_0" index="0" speed="9.26" length="14.34" shape="94.56,-0.89 94.85,-0.85 98.60,1.40 100.85,5.15 101.60,10.40" />
    </edge>
    <edge id=":J18_0" function="internal">
        <lane id=":J18_0_0" index="0" speed="6.51" length="9.03" shape="-4.80,10.40 -5.15,7.95 -6.20,6.20 -7.95,5.15 -10.40,4.80" />
    </edge>
    <edge id=":J18_1" function="internal">
        <lane id=":J18_1_0" index="0" speed="13.89" length="20.80" shape="-4.80,10.40 -4.80,-10.40" />
        <lane id=":J18_1_1" index="1" speed="13.89" length="20.80" shape="-1.60,10.40 -1.60,-10.40" />
    </edge>
    <edge id=":J18_3" function="internal">
        <lane id=":J18_3_0" index="0" speed="9.26" length="5.01" shape="-1.60,10.40 -0.89,5.44" />
    </edge>
    <edge id=":J18_16" function="internal">
        <lane id=":J18_16_0" index="0" speed="9.26" length="14.34" shape="-0.89,5.44 -0.85,5.15 1.40,1.40 5.15,-0.85 10.40,-1.60" />
    </edge>
    <edge id=":J18_4" function="internal">
        <lane id=":J18_4_0" index="0" speed="6.51" length="9.03" shape="10.40,4.80 7.95,5.15 6.20,6.20 5.15,7.95 4.80,10.40" />
    </edge>
    <edge id=":J18_5" function="internal">
        <lane id=":J18_5_0" index="0" speed="13.89" length="20.80" shape="10.40,4.80 -10.40,4.80" />
        <lane id=":J18_5_1" index="1" speed="13.89" length="20.80" shape="10.40,1.60 -10.40,1.60" />
    </edge>
    <edge id=":J18_7" function="internal">
        <lane id=":J18_7_0" index="0" speed="9.26" length="5.01" shape="10.40,1.60 5.44,0.89" />
    </edge>
    <edge id=":J18_17" function="internal">
        <lane id=":J18_17_0" index="0" speed="9.26" length="14.34" shape="5.44,0.89 5.15,0.85 1.40,-1.40 -0.85,-5.15 -1.60,-10.40" />
    </edge>
    <edge id=":J18_8" function="internal">
        <lane id=":J18_8_0" index="0" speed="6.51" length="9.03" shape="4.80,-10.40 5.15,-7.95 6.20,-6.20 7.95,-5.15 10.40,-4.80" />
    </edge>
    <edge id=":J18_9" function="internal">
        <lane id=":J18_9_0" index="0" speed="13.89" length="20.80" shape="4.80,-10.40 4.80,10.40" />
        <lane id=":J18_9_1" index="1" speed="13.89" length="20.80" shape="1.60,-10.40 1.60,10.40" />
    </edge>
    <edge id=":J18_11" function="internal">
        <lane id=":J18_11_0" index="0" speed="9.26" length="5.01" shape="1.60,-10.40 0.89,-5.44" />
    </edge>
    <edge id=":J18_18" function="internal">
        <lane id=":J18_18_0" index="0" speed="9.26" length="14.34" shape="0.89,-5.44 0.85,-5.15 -1.40,-1.40 -5.15,0.85 -10.40,1.60" />
    </edge>
    <edge id=":J18_12" function="internal">
        <lane id=":J18_12_0" index="0" speed="6.51" length="9.03" shape="-10.40,-4.80 -7.95,-5.15 -6.20,-6.20 -5.15,-7.95 -4.80,-10.40" />
    </edge>
    <edge id=":J18_13" function="internal">
        <lane id=":J18_13_0" index="0" speed="13.89" length="20.80" shape="-10.40,-4.80 10.40,-4.80" />
        <lane id=":J18_13_1" index="1" speed="13.89" length="20.80" shape="-10.40,-1.60 10.40,-1.60" />
    </edge>
    <edge id=":J18_15" function="internal">
        <lane id=":J18_15_0" index="0" speed="9.26" length="5.01" shape="-10.40,-1.60 -5.44,-0.89" />
    </edge>
    <edge id=":J18_19" function="internal">
        <lane id=":J18_19_0" index="0" speed="9.26" length="14.34" shape="-5.44,-0.89 -5.15,-0.85 -1.40,1.40 0.85,5.15 1.60,10.40" />
    </edge>
    <edge id="-E12" from="J16" to="J15" priority="-1">
        <lane id="-E12_0" index="0" speed="13.89" length="79.20" shape="89.60,104.80 10.40,104.80" />
        <lane id="-E12_1" index="1" speed="13.89" length="79.20" shape="89.60,101.60 10.40,101.60" />
    </edge>
    <edge id="-E13" from="J17" to="J16" priority="-1">
        <lane id="-E13_0" index="0" speed="13.89" length="79.20" shape="104.80,10.40 104.80,89.60" />
        <lane id="-E13_1" index="1" speed="13.89" length="79.20" shape="101.60,10.40 101.60,89.60" />
    </edge>
    <edge id="-E14" from="J18" to="J17" priority="-1">
        <lane id="-E14_0" index="0" speed="13.89" length="79.20" shape="10.40,-4.80 89.60,-4.80" />
        <lane id="-E14_1" index="1" speed="13.89" length="79.20" shape="10.40,-1.60 89.60,-1.60" />
    </edge>
    <edge id="-E15" from="J15" to="J18" priority="-1">
        <lane id="-E15_0" index="0" speed="13.89" length="79.20" shape="-4.80,89.60 -4.80,10.40" />
        <lane id="-E15_1" index="1" speed="13.89" length="79.20" shape="-1.60,89.60 -1.60,10.40" />
    </edge>
    <edge id="-E16" from="J15" to="J19" priority="-1">
        <lane id="-E16_0" index="0" speed="13.89" length="89.60" shape="-10.40,104.80 -100.00,104.80" />
        <lane id="-E16_1" index="1" speed="13.89" length="89.60" shape="-10.40,101.60 -100.00,101.60" />
    </edge>
    <edge id="-E17" from="J18" to="J20" priority="-1">
        <lane id="-E17_0" index="0" speed="13.89" length="89.60" shape="-10.40,4.80 -100.00,4.80" />
        <lane id="-E17_1" index="1" speed="13.89" length="89.60" shape="-10.40,1.60 -100.00,1.60" />
    </edge>
    <edge id="-E18" from="J17" to="J21" priority="-1">
        <lane id="-E18_0" index="0" speed="13.89" length="89.60" shape="110.40,-4.80 200.00,-4.80" />
        <lane id="-E18_1" index="1" speed="13.89" length="89.60" shape="110.40,-1.60 200.00,-1.60" />
    </edge>
    <edge id="-E19" from="J16" to="J22" priority="-1">
        <lane id="-E19_0" index="0" speed="13.89" length="89.60" shape="110.40,95.20 200.00,95.20" />
        <lane id="-E19_1" index="1" speed="13.89" length="89.60" shape="110.40,98.40 200.00,98.40" />
    </edge>
    <edge id="-E20" from="J16" to="J23" priority="-1">
        <lane id="-E20_0" index="0" speed="13.89" length="89.60" shape="104.80,110.40 104.80,200.00" />
        <lane id="-E20_1" index="1" speed="13.89" length="89.60" shape="101.60,110.40 101.60,200.00" />
    </edge>
    <edge id="-E21" from="J15" to="J24" priority="-1">
        <lane id="-E21_0" index="0" speed="13.89" length="89.60" shape="4.80,110.40 4.80,200.00" />
        <lane id="-E21_1" index="1" speed="13.89" length="89.60" shape="1.60,110.40 1.60,200.00" />
    </edge>
    <edge id="-E22" from="J18" to="J25" priority="-1">
        <lane id="-E22_0" index="0" speed="13.89" length="89.60" shape="-4.80,-10.40 -4.80,-100.00" />
        <lane id="-E22_1" index="1" speed="13.89" length="89.60" shape="-1.60,-10.40 -1.60,-100.00" />
    </edge>
    <edge id="-E23" from="J17" to="J26" priority="-1">
        <lane id="-E23_0" index="0" speed="13.89" length="89.60" shape="95.20,-10.40 95.20,-100.00" />
        <lane id="-E23_1" index="1" speed="13.89" length="89.60" shape="98.40,-10.40 98.40,-100.00" />
    </edge>
    <edge id="E12" from="J15" to="J16" priority="-1">
        <lane id="E12_0" index="0" speed="13.89" length="79.20" shape="10.40,95.20 89.60,95.20" />
        <lane id="E12_1" index="1" speed="13.89" length="79.20" shape="10.40,98.40 89.60,98.40" />
    </edge>
    <edge id="E13" from="J16" to="J17" priority="-1">
        <lane id="E13_0" index="0" speed="13.89" length="79.20" shape="95.20,89.60 95.20,10.40" />
        <lane id="E13_1" index="1" speed="13.89" length="79.20" shape="98.40,89.60 98.40,10.40" />
    </edge>
    <edge id="E14" from="J17" to="J18" priority="-1">
        <lane id="E14_0" index="0" speed="13.89" length="79.20" shape="89.60,4.80 10.40,4.80" />
        <lane id="E14_1" index="1" speed="13.89" length="79.20" shape="89.60,1.60 10.40,1.60" />
    </edge>
    <edge id="E15" from="J18" to="J15" priority="-1">
        <lane id="E15_0" index="0" speed="13.89" length="79.20" shape="4.80,10.40 4.80,89.60" />
        <lane id="E15_1" index="1" speed="13.89" length="79.20" shape="1.60,10.40 1.60,89.60" />
    </edge>
    <edge id="E16" from="J19" to="J15" priority="-1">
        <lane id="E16_0" index="0" speed="13.89" length="89.60" shape="-100.00,95.20 -10.40,95.20" />
        <lane id="E16_1" index="1" speed="13.89" length="89.60" shape="-100.00,98.40 -10.40,98.40" />
    </edge>
    <edge id="E17" from="J20" to="J18" priority="-1">
        <lane id="E17_0" index="0" speed="13.89" length="89.60" shape="-100.00,-4.80 -10.40,-4.80" />
        <lane id="E17_1" index="1" speed="13.89" length="89.60" shape="-100.00,-1.60 -10.40,-1.60" />
    </edge>
    <edge id="E18" from="J21" to="J17" priority="-1">
        <lane id="E18_0" index="0" speed="13.89" length="89.60" shape="200.00,4.80 110.40,4.80" />
        <lane id="E18_1" index="1" speed="13.89" length="89.60" shape="200.00,1.60 110.40,1.60" />
    </edge>
    <edge id="E19" from="J22" to="J16" priority="-1">
        <lane id="E19_0" index="0" speed="13.89" length="89.60" shape="200.00,104.80 110.40,104.80" />
        <lane id="E19_1" index="1" speed="13.89" length="89.60" shape="200.00,101.60 110.40,101.60" />
    </edge>
    <edge id="E20" from="J23" to="J16" priority="-1">
        <lane id="E20_0" index="0" speed="13.89" length="89.60" shape="95.20,200.00 95.20,110.40" />
        <lane id="E20_1" index="1" speed="13.89" length="89.60" shape="98.40,200.00 98.40,110.40" />
    </edge>
    <edge id="E21" from="J24" to="J15" priority="-1">
        <lane id="E21_0" index="0" speed="13.89" length="89.60" shape="-4.80,200.00 -4.80,110.40" />
        <lane id="E21_1" index="1" speed="13.89" length="89.60" shape="-1.60,200.00 -1.60,110.40" />
    </edge>
    <edge id="E22" from="J25" to="J18" priority="-1">
        <lane id="E22_0" index="0" speed="13.89" length="89.60" shape="4.80,-100.00 4.80,-10.40" />
        <lane id="E22_1" index="1" speed="13.89" length="89.60" shape="1.60,-100.00 1.60,-10.40" />
    </edge>
    <edge id="E23" from="J26" to="J17" priority="-1">
        <lane id="E23_0" index="0" speed="13.89" length="89.60" shape="104.80,-100.00 104.80,-10.40" />
        <lane id="E23_1" index="1" speed="13.89" length="89.60" shape="101.60,-100.00 101.60,-10.40" />
    </edge>
    <tlLogic id="J15" type="static" programID="dqn" offset="0">
        <phase duration="35" state="GGGgrrrrGGGgrrrr" />
        <phase duration="3" state="yyyyrrrryyyyrrrr" />
        <phase duration="15" state="rrrGrrrrrrrGrrrr" />
        <phase duration="3" state="rrryrrrrrrryrrrr" />
        <phase duration="35" state="rrrrGGGgrrrrGGGg" />
        <phase duration="3" state="rrrryyyyrrrryyyy" />
        <phase duration="15" state="rrrrrrrGrrrrrrrG" />
        <phase duration="3" state="rrrrrrryrrrrrrry" />
    </tlLogic>
    <tlLogic id="J16" type="static" programID="dqn" offset="0">
        <phase duration="35" state="GGGgrrrrGGGgrrrr" />
        <phase duration="3" state="yyyyrrrryyyyrrrr" />
        <phase duration="15" state="rrrGrrrrrrrGrrrr" />
        <phase duration="3" state="rrryrrrrrrryrrrr" />
        <phase duration="35" state="rrrrGGGgrrrrGGGg" />
        <phase duration="3" state="rrrryyyyrrrryyyy" />
        <phase duration="15" state="rrrrrrrGrrrrrrrG" />
        <phase duration="3" state="rrrrrrryrrrrrrry" />
    </tlLogic>
    <tlLogic id="J17" type="static" programID="dqn" offset="0">
        <phase duration="35" state="GGGgrrrrGGGgrrrr" />
        <phase duration="3" state="yyyyrrrryyyyrrrr" />
        <phase duration="15" state="rrrGrrrrrrrGrrrr" />
        <phase duration="3" state="rrryrrrrrrryrrrr" />
        <phase duration="35" state="rrrrGGGgrrrrGGGg" />
        <phase duration="3" state="rrrryyyyrrrryyyy" />
        <phase duration="15" state="rrrrrrrGrrrrrrrG" />
        <phase duration="3" state="rrrrrrryrrrrrrry" />
    </tlLogic>
    <tlLogic id="J18" type="static" programID="dqn" offset="0">
        <phase duration="35" state="GGGgrrrrGGGgrrrr" />
        <phase duration="3" state="yyyyrrrryyyyrrrr" />
        <phase duration="15" state="rrrGrrrrrrrGrrrr" />
        <phase duration="3" state="rrryrrrrrrryrrrr" />
        <phase duration="35" state="rrrrGGGgrrrrGGGg" />
        <phase duration="3" state="rrrryyyyrrrryyyy" />
        <phase duration="15" state="rrrrrrrGrrrrrrrG" />
        <phase duration="3" state="rrrrrrryrrrrrrry" />
    </tlLogic>
    <junction id="J15" type="traffic_light" x="0.00" y="100.00" incLanes="E21_0 E21_1 -E12_0 -E12_1 E15_0 E15_1 E16_0 E16_1" intLanes=":J15_0_0 :J15_1_0 :J15_1_1 :J15_16_0 :J15_4_0 :J15_5_0 :J15_5_1 :J15_17_0 :J15_8_0 :J15_9_0 :J15_9_1 :J15_18_0 :J15_12_0 :J15_13_0 :J15_13_1 :J15_19_0" shape="-6.40,110.40 6.40,110.40 6.84,108.18 7.40,107.40 8.18,106.84 9.18,106.51 10.40,106.40 10.40,93.60 8.18,93.16 7.40,92.60 6.84,91.82 6.51,90.82 6.40,89.60 -6.40,89.60 -6.84,91.82 -7.40,92.60 -8.18,93.16 -9.18,93.49 -10.40,93.60 -10.40,106.40 -8.18,106.84 -7.40,107.40 -6.84,108.18 -6.51,109.18">
        <request index="0" response="0000000000000000" foes="0000000001100000" cont="0" />
        <request index="1" response="1000000000000000" foes="1111100011100000" cont="0" />
        <request index="2" response="1000000010000000" foes="1111100011100000" cont="0" />
        <request index="3" response="1000011010000000" foes="1110011011100000" cont="1" />
        <request index="4" response="0000011000000000" foes="0000011000000000" cont="0" />
        <request index="5" response="0000111000001111" foes="1000111000001111" cont="0" />
        <request index="6" response="0000111000001111" foes="1000111000001111" cont="0" />
        <request index="7" response="0110111000001110" foes="0110111000001110" cont="1" />
        <request index="8" response="0000000000000000" foes="0110000000000000" cont="0" />
        <request index="9" response="0000000010000000" foes="1110000011111000" cont="0" />
        <request index="10" response="1000000010000000" foes="1110000011111000" cont="0" />
        <request index="11" response="1000000010000110" foes="1110000011100110" cont="1" />
        <request index="12" response="0000000000000110" foes="0000000000000110" cont="0" />
        <request index="13" response="0000111100001110" foes="0000111110001110" cont="0" />
        <request index="14" response="0000111100001110" foes="0000111110001110" cont="0" />
        <request index="15" response="0000111001101110" foes="0000111001101110" cont="1" />
    </junction>
    <junction id="J16" type="traffic_light" x="100.00" y="100.00" incLanes="E20_0 E20_1 E19_0 E19_1 -E13_0 -E13_1 E12_0 E12_1" intLanes=":J16_0_0 :J16_1_0 :J16_1_1 :J16_16_0 :J16_4_0 :J16_5_0 :J16_5_1 :J16_17_0 :J16_8_0 :J16_9_0 :J16_9_1 :J16_18_0 :J16_12_0 :J16_13_0 :J16_13_1 :J16_19_0" shape="93.60,110.40 106.40,110.40 106.84,108.18 107.40,107.40 108.18,106.84 109.18,106.51 110.40,106.40 110.40,93.60 108.18,93.16 107.40,92.60 106.84,91.82 106.51,90.82 106.40,89.60 93.60,89.60 93.16,91.82 92.60,92.60 91.82,93.16 90.82,93.49 89.60,93.60 89.60,106.40 91.82,106.84 92.60,107.40 93.16,108.18 93.49,109.18">
        <request index="0" response="0000000000000000" foes="0000000001100000" cont="0" />
        <request index="1" response="1000000000000000" foes="1111100011100000" cont="0" />
        <request index="2" response="1000000010000000" foes="1111100011100000" cont="0" />
        <request index="3" response="1000011010000000" foes="1110011011100000" cont="1" />
        <request index="4" response="0000011000000000" foes="0000011000000000" cont="0" />
        <request index="5" response="0000111000001111" foes="1000111000001111" cont="0" />
        <request index="6" response="0000111000001111" foes="1000111000001111" cont="0" />
        <request index="7" response="0110111000001110" foes="0110111000001110" cont="1" />
        <request index="8" response="0000000000000000" foes="0110000000000000" cont="0" />
        <request index="9" response="0000000010000000" foes="1110000011111000" cont="0" />
        <request index="10" response="1000000010000000" foes="1110000011111000" cont="0" />
        <request index="11" response="1000000010000110" foes="1110000011100110" cont="1" />
        <request index="12" response="0000000000000110" foes="0000000000000110" cont="0" />
        <request index="13" response="0000111100001110" foes="0000111110001110" cont="0" />
        <request index="14" response="0000111100001110" foes="0000111110001110" cont="0" />
        <request index="15" response="0000111001101110" foes="0000111001101110" cont="1" />
    </junction>
    <junction id="J17" type="traffic_light" x="100.00" y="0.00" incLanes="E13_0 E13_1 E18_0 E18_1 E23_0 E23_1 -E14_0 -E14_1" intLanes=":J17_0_0 :J17_1_0 :J17_1_1 :J17_16_0 :J17_4_0 :J17_5_0 :J17_5_1 :J17_17_0 :J17_8_0 :J17_9_0 :J17_9_1 :J17_18_0 :J17_12_0 :J17_13_0 :J17_13_1 :J17_19_0" shape="93.60,10.40 106.40,10.40 106.84,8.18 107.40,7.40 108.18,6.84 109.18,6.51 110.40,6.40 110.40,-6.40 108.18,-6.84 107.40,-7.40 106.84,-8.18 106.51,-9.18 106.40,-10.40 93.60,-10.40 93.16,-8.18 92.60,-7.40 91.82,-6.84 90.82,-6.51 89.60,-6.40 89.60,6.40 91.82,6.84 92.60,7.40 93.16,8.18 93.49,9.18">
        <request index="0" response="0000000000000000" foes="0000000001100000" cont="0" />
        <request index="1" response="1000000000000000" foes="1111100011100000" cont="0" />
        <request index="2" response="1000000010000000" foes="1111100011100000" cont="0" />
        <request index="3" response="1000011010000000" foes="1110011011100000" cont="1" />
        <request index="4" response="0000011000000000" foes="0000011000000000" cont="0" />
        <request index="5" response="0000111000001111" foes="1000111000001111" cont="0" />
        <request index="6" response="0000111000001111" foes="1000111000001111" cont="0" />
        <request index="7" response="0110111000001110" foes="0110111000001110" cont="1" />
        <request index="8" response="0000000000000000" foes="0110000000000000" cont="0" />
        <request index="9" response="0000000010000000" foes="1110000011111000" cont="0" />
        <request index="10" response="1000000010000000" foes="1110000011111000" cont="0" />
        <request index="11" response="1000000010000110" foes="1110000011100110" cont="1" />
        <request index="12" response="0000000000000110" foes="0000000000000110" cont="0" />
        <request index="13" response="0000111100001110" foes="0000111110001110" cont="0" />
        <request index="14" response="0000111100001110" foes="0000111110001110" cont="0" />
        <request index="15" response="0000111001101110" foes="0000111001101110" cont="1" />
    </junction>
    <junction id="J18" type="traffic_light" x="0.00" y="0.00" incLanes="-E15_0 -E15_1 E14_0 E14_1 E22_0 E22_1 E17_0 E17_1" intLanes=":J18_0_0 :J18_1_0 :J18_1_1 :J18_16_0 :J18_4_0 :J18_5_0 :J18_5_1 :J18_17_0 :J18_8_0 :J18_9_0 :J18_9_1 :J18_18_0 :J18_12_0 :J18_13_0 :J18_13_1 :J18_19_0" shape="-6.40,10.40 6.40,10.40 6.84,8.18 7.40,7.40 8.18,6.84 9.18,6.51 10.40,6.40 10.40,-6.40 8.18,-6.84 7.40,-7.40 6.84,-8.18 6.51,-9.18 6.40,-10.40 -6.40,-10.40 -6.84,-8.18 -7.40,-7.40 -8.18,-6.84 -9.18,-6.51 -10.40,-6.40 -10.40,6.40 -8.18,6.84 -7.40,7.40 -6.84,8.18 -6.51,9.18">
        <request index="0" response="0000000000000000" foes="0000000001100000" cont="0" />
        <request index="1" response="1000000000000000" foes="1111100011100000" cont="0" />
        <request index="2" response="1000000010000000" foes="1111100011100000" cont="0" />
        <request index="3" response="1000011010000000" foes="1110011011100000" cont="1" />
        <request index="4" response="0000011000000000" foes="0000011000000000" cont="0" />
        <request index="5" response="0000111000001111" foes="1000111000001111" cont="0" />
        <request index="6" response="0000111000001111" foes="1000111000001111" cont="0" />
        <request index="7" response="0110111000001110" foes="0110111000001110" cont="1" />
        <request index="8" response="0000000000000000" foes="0110000000000000" cont="0" />
        <request index="9" response="0000000010000000" foes="1110000011111000" cont="0" />
        <request index="10" response="1000000010000000" foes="1110000011111000" cont="0" />
        <request index="11" response="1000000010000110" foes="1110000011100110" cont="1" />
        <request index="12" response="0000000000000110" foes="0000000000000110" cont="0" />
        <request index="13" response="0000111100001110" foes="0000111110001110" cont="0" />